<routes>
            <vType accel="1.0" decel="4.5" id="Car" length="5.0" minGap="2.5" maxSpeed="25" sigma="0.5" />

            <route id="W_N" edges="W2TL TL2N"/>
            <route id="W_E" edges="W2TL TL2E"/>
            <route id="W_S" edges="W2TL TL2S"/>
            <route id="N_W" edges="N2TL TL2W"/>
            <route id="N_E" edges="N2TL TL2E"/>
            <route id="N_S" edges="N2TL TL2S"/>
            <route id="E_W" edges="E2TL TL2W"/>
            <route id="E_N" edges="E2TL TL2N"/>
            <route id="E_S" edges="E2TL TL2S"/>
            <route id="S_W" edges="S2TL TL2W"/>
            <route id="S_N" edges="S2TL TL2N"/>
            <route id="S_E" edges="S2TL TL2E"/>
    <vehicle id="W_E_0" type="Car" route="W_E" depart="0.0" departLane="random" departSpeed="10" />
    <vehicle id="W_E_1" type="Car" route="W_E" depart="0.0" departLane="random" departSpeed="10" />
    <vehicle id="W_E_2" type="Car" route="W_E" depart="0.0" departLane="random" departSpeed="10" />
    <vehicle id="W_E_3" type="Car" route="W_E" depart="0.0" departLane="random" departSpeed="10" />
    <vehicle id="N_S_4" type="Car" route="N_S" depart="0.0" departLane="random" departSpeed="10" />
    <vehicle id="E_W_5" type="Car" route="E_W" depart="0.0" departLane="random" departSpeed="10" />
    <vehicle id="E_S_6" type="Car" route="E_S" depart="0.0" departLane="random" departSpeed="10" />
    <vehicle id="N_S_7" type="Car" route="N_S" depart="0.0" departLane="random" departSpeed="10" />
    <vehicle id="W_N_8" type="Car" route="W_N" depart="0.0" departLane="random" departSpeed="10" />
    <vehicle id="E_S_9" type="Car" route="E_S" depart="0.0" departLane="random" departSpeed="10" />
    <vehicle id="W_S_10" type="Car" route="W_S" depart="0.0" departLane="random" departSpeed="10" />
    <vehicle id="E_S_11" type="Car" route="E_S" depart="0.0" departLane="random" departSpeed="10" />
    <vehicle id="W_S_12" type="Car" route="W_S" depart="0.0" departLane="random" departSpeed="10" />
    <vehicle id="S_N_13" type="Car" route="S_N" depart="0.0" departLane="random" departSpeed="10" />
    <vehicle id="N_S_14" type="Car" route="N_S" depart="0.0" departLane="random" departSpeed="10" />
    <vehicle id="W_E_15" type="Car" route="W_E" depart="0.0" departLane="random" departSpeed="10" />
    <vehicle id="N_W_16" type="Car" route="N_W" depart="0.0" departLane="random" departSpeed="10" />
    <vehicle id="E_W_17" type="Car" route="E_W" depart="0.0" departLane="random" departSpeed="10" />
    <vehicle id="E_S_18" type="Car" route="E_S" depart="0.0" departLane="random" departSpeed="10" />
    <vehicle id="N_S_19" type="Car" route="N_S" depart="0.0" departLane="random" departSpeed="10" />
    <vehicle id="S_N_20" type="Car" route="S_N" depart="0.0" departLane="random" departSpeed="10" />
    <vehicle id="S_N_21" type="Car" route="S_N" depart="0.0" departLane="random" departSpeed="10" />
    <vehicle id="N_S_22" type="Car" route="N_S" depart="0.0" departLane="random" departSpeed="10" />
    <vehicle id="N_S_23" type="Car" route="N_S" depart="0.0" departLane="random" departSpeed="10" />
    <vehicle id="E_S_24" type="Car" route="E_S" depart="0.0" departLane="random" departSpeed="10" />
    <vehicle id="N_E_25" type="Car" route="N_E" depart="0.0" departLane="random" departSpeed="10" />
    <vehicle id="E_W_26" type="Car" route="E_W" depart="0.0" departLane="random" departSpeed="10" />
    <vehicle id="S_N_27" type="Car" route="S_N" depart="0.0" departLane="random" departSpeed="10" />
    <vehicle id="S_N_28" type="Car" route="S_N" depart="0.0" departLane="random" departSpeed="10" />
    <vehicle id="N_S_29" type="Car" route="N_S" depart="0.0" departLane="random" departSpeed="10" />
    <vehicle id="E_W_30" type="Car" route="E_W" depart="0.0" departLane="random" departSpeed="10" />
    <vehicle id="N_S_31" type="Car" route="N_S" depart="0.0" departLane="random" departSpeed="10" />
    <vehicle id="S_N_32" type="Car" route="S_N" depart="0.0" departLane="random" departSpeed="10" />
    <vehicle id="E_W_33" type="Car" route="E_W" depart="0.0" departLane="random" departSpeed="10" />
    <vehicle id="W_E_34" type="Car" route="W_E" depart="0.0" departLane="random" departSpeed="10" />
    <vehicle id="N_S_35" type="Car" route="N_S" depart="0.0" departLane="random" departSpeed="10" />
    <vehicle id="N_S_36" type="Car" route="N_S" depart="0.0" departLane="random" departSpeed="10" />
    <vehicle id="W_E_37" type="Car" route="W_E" depart="0.0" departLane="random" departSpeed="10" />
    <vehicle id="S_N_38" type="Car" route="S_N" depart="0.0" departLane="random" departSpeed="10" />
    <vehicle id="W_E_39" type="Car" route="W_E" depart="0.0" departLane="random" departSpeed="10" />
    <vehicle id="E_W_40" type="Car" route="E_W" depart="0.0" departLane="random" departSpeed="10" />
    <vehicle id="N_S_41" type="Car" route="N_S" depart="0.0" departLane="random" departSpeed="10" />
    <vehicle id="E_W_42" type="Car" route="E_W" depart="0.0" departLane="random" departSpeed="10" />
    <vehicle id="W_E_43" type="Car" route="W_E" depart="0.0" departLane="random" departSpeed="10" />
    <vehicle id="N_S_44" type="Car" route="N_S" depart="0.0" departLane="random" departSpeed="10" />
    <vehicle id="N_S_45" type="Car" route="N_S" depart="0.0" departLane="random" departSpeed="10" />
    <vehicle id="N_S_46" type="Car" route="N_S" depart="0.0" departLane="random" departSpeed="10" />
    <vehicle id="N_S_47" type="Car" route="N_S" depart="0.0" departLane="random" departSpeed="10" />
    <vehicle id="E_W_48" type="Car" route="E_W" depart="0.0" departLane="random" departSpeed="10" />
    <vehicle id="S_E_49" type="Car" route="S_E" depart="0.0" departLane="random" departSpeed="10" />
    <vehicle id="N_S_50" type="Car" route="N_S" depart="0.0" departLane="random" departSpeed="10" />
    <vehicle id="N_S_51" type="Car" route="N_S" depart="0.0" departLane="random" departSpeed="10" />
    <vehicle id="S_N_52" type="Car" route="S_N" depart="0.0" departLane="random" departSpeed="10" />
    <vehicle id="N_S_53" type="Car" route="N_S" depart="0.0" departLane="random" departSpeed="10" />
    <vehicle id="N_S_54" type="Car" route="N_S" depart="0.0" departLane="random" departSpeed="10" />
    <vehicle id="S_E_55" type="Car" route="S_E" depart="0.0" departLane="random" departSpeed="10" />
    <vehicle id="E_W_56" type="Car" route="E_W" depart="0.0" departLane="random" departSpeed="10" />
    <vehicle id="N_S_57" type="Car" route="N_S" depart="0.0" departLane="random" departSpeed="10" />
    <vehicle id="S_N_58" type="Car" route="S_N" depart="0.0" departLane="random" departSpeed="10" />
    <vehicle id="W_S_59" type="Car" route="W_S" depart="0.0" departLane="random" departSpeed="10" />
    <vehicle id="S_N_60" type="Car" route="S_N" depart="0.0" departLane="random" departSpeed="10" />
    <vehicle id="W_E_61" type="Car" route="W_E" depart="0.0" departLane="random" departSpeed="10" />
    <vehicle id="N_S_62" type="Car" route="N_S" depart="0.0" departLane="random" departSpeed="10" />
    <vehicle id="N_S_63" type="Car" route="N_S" depart="0.0" departLane="random" departSpeed="10" />
    <vehicle id="N_S_64" type="Car" route="N_S" depart="0.0" departLane="random" departSpeed="10" />
    <vehicle id="E_W_65" type="Car" route="E_W" depart="0.0" departLane="random" departSpeed="10" />
    <vehicle id="S_N_66" type="Car" route="S_N" depart="0.0" departLane="random" departSpeed="10" />
    <vehicle id="W_S_67" type="Car" route="W_S" depart="0.0" departLane="random" departSpeed="10" />
    <vehicle id="W_N_68" type="Car" route="W_N" depart="0.0" departLane="random" departSpeed="10" />
    <vehicle id="S_W_69" type="Car" route="S_W" depart="0.0" departLane="random" departSpeed="10" />
    <vehicle id="W_S_70" type="Car" route="W_S" depart="0.0" departLane="random" departSpeed="10" />
    <vehicle id="W_E_71" type="Car" route="W_E" depart="0.0" departLane="random" departSpeed="10" />
    <vehicle id="N_S_72" type="Car" route="N_S" depart="0.0" departLane="random" departSpeed="10" />
    <vehicle id="W_S_73" type="Car" route="W_S" depart="0.0" departLane="random" departSpeed="10" />
    <vehicle id="W_N_74" type="Car" route="W_N" depart="0.0" departLane="random" departSpeed="10" />
    <vehicle id="E_W_75" type="Car" route="E_W" depart="0.0" departLane="random" departSpeed="10" />
    <vehicle id="N_W_76" type="Car" route="N_W" depart="0.0" departLane="random" departSpeed="10" />
    <vehicle id="S_E_77" type="Car" route="S_E" depart="0.0" departLane="random" departSpeed="10" />
    <vehicle id="E_N_78" type="Car" route="E_N" depart="0.0" departLane="random" departSpeed="10" />
    <vehicle id="E_W_79" type="Car" route="E_W" depart="0.0" departLane="random" departSpeed="10" />
    <vehicle id="E_W_80" type="Car" route="E_W" depart="0.0" departLane="random" departSpeed="10" />
    <vehicle id="E_W_81" type="Car" route="E_W" depart="0.0" departLane="random" departSpeed="10" />
    <vehicle id="N_S_82" type="Car" route="N_S" depart="0.0" departLane="random" departSpeed="10" />
    <vehicle id="W_E_83" type="Car" route="W_E" depart="0.0" departLane="random" departSpeed="10" />
    <vehicle id="N_E_84" type="Car" route="N_E" depart="0.0" departLane="random" departSpeed="10" />
    <vehicle id="S_N_85" type="Car" route="S_N" depart="0.0" departLane="random" departSpeed="10" />
    <vehicle id="N_S_86" type="Car" route="N_S" depart="0.0" departLane="random" departSpeed="10" />
    <vehicle id="N_E_87" type="Car" route="N_E" depart="0.0" departLane="random" departSpeed="10" />
    <vehicle id="S_N_88" type="Car" route="S_N" depart="0.0" departLane="random" departSpeed="10" />
    <vehicle id="N_S_89" type="Car" route="N_S" depart="0.0" departLane="random" departSpeed="10" />
    <vehicle id="N_S_90" type="Car" route="N_S" depart="0.0" departLane="random" departSpeed="10" />
    <vehicle id="N_S_91" type="Car" route="N_S" depart="0.0" departLane="random" departSpeed="10" />
    <vehicle id="W_E_92" type="Car" route="W_E" depart="0.0" departLane="random" departSpeed="10" />
    <vehicle id="N_S_93" type="Car" route="N_S" depart="0.0" departLane="random" departSpeed="10" />
    <vehicle id="S_N_94" type="Car" route="S_N" depart="0.0" departLane="random" departSpeed="10" />
    <vehicle id="E_W_95" type="Car" route="E_W" depart="0.0" departLane="random" departSpeed="10" />
    <vehicle id="E_W_96" type="Car" route="E_W" depart="0.0" departLane="random" departSpeed="10" />
    <vehicle id="N_S_97" type="Car" route="N_S" depart="0.0" departLane="random" departSpeed="10" />
    <vehicle id="W_E_98" type="Car" route="W_E" depart="0.0" departLane="random" departSpeed="10" />
    <vehicle id="S_N_99" type="Car" route="S_N" depart="0.0" departLane="random" departSpeed="10" />
    <vehicle id="W_S_100" type="Car" route="W_S" depart="0.0" departLane="random" departSpeed="10" />
    <vehicle id="E_N_101" type="Car" route="E_N" depart="0.0" departLane="random" departSpeed="10" />
    <vehicle id="N_E_102" type="Car" route="N_E" depart="0.0" departLane="random" departSpeed="10" />
    <vehicle id="E_S_103" type="Car" route="E_S" depart="0.0" departLane="random" departSpeed="10" />
    <vehicle id="E_W_104" type="Car" route="E_W" depart="0.0" departLane="random" departSpeed="10" />
    <vehicle id="N_S_105" type="Car" route="N_S" depart="0.0" departLane="random" departSpeed="10" />
    <vehicle id="E_W_106" type="Car" route="E_W" depart="0.0" departLane="random" departSpeed="10" />
    <vehicle id="N_S_107" type="Car" route="N_S" depart="0.0" departLane="random" departSpeed="10" />
    <vehicle id="W_E_108" type="Car" route="W_E" depart="0.0" departLane="random" departSpeed="10" />
    <vehicle id="W_E_109" type="Car" route="W_E" depart="0.0" departLane="random" departSpeed="10" />
    <vehicle id="E_W_110" type="Car" route="E_W" depart="0.0" departLane="random" departSpeed="10" />
    <vehicle id="S_N_111" type="Car" route="S_N" depart="0.0" departLane="random" departSpeed="10" />
    <vehicle id="W_E_112" type="Car" route="W_E" depart="0.0" departLane="random" departSpeed="10" />
    <vehicle id="N_S_113" type="Car" route="N_S" depart="0.0" departLane="random" departSpeed="10" />
    <vehicle id="N_S_114" type="Car" route="N_S" depart="0.0" departLane="random" departSpeed="10" />
    <vehicle id="E_W_115" type="Car" route="E_W" depart="0.0" departLane="random" departSpeed="10" />
    <vehicle id="E_N_116" type="Car" route="E_N" depart="0.0" departLane="random" departSpeed="10" />
    <vehicle id="N_S_117" type="Car" route="N_S" depart="0.0" departLane="random" departSpeed="10" />
    <vehicle id="W_E_118" type="Car" route="W_E" depart="0.0" departLane="random" departSpeed="10" />
    <vehicle id="W_E_119" type="Car" route="W_E" depart="0.0" departLane="random" departSpeed="10" />
    <vehicle id="S_E_120" type="Car" route="S_E" depart="0.0" departLane="random" departSpeed="10" />
    <vehicle id="E_W_121" type="Car" route="E_W" depart="0.0" departLane="random" departSpeed="10" />
    <vehicle id="S_N_122" type="Car" route="S_N" depart="0.0" departLane="random" departSpeed="10" />
    <vehicle id="W_E_123" type="Car" route="W_E" depart="0.0" departLane="random" departSpeed="10" />
    <vehicle id="W_E_124" type="Car" route="W_E" depart="0.0" departLane="random" departSpeed="10" />
    <vehicle id="W_N_125" type="Car" route="W_N" depart="0.0" departLane="random" departSpeed="10" />
    <vehicle id="N_E_126" type="Car" route="N_E" depart="0.0" departLane="random" departSpeed="10" />
    <vehicle id="N_S_127" type="Car" route="N_S" depart="0.0" departLane="random" departSpeed="10" />
    <vehicle id="W_E_128" type="Car" route="W_E" depart="0.0" departLane="random" departSpeed="10" />
    <vehicle id="S_N_129" type="Car" route="S_N" depart="0.0" departLane="random" departSpeed="10" />
    <vehicle id="W_E_130" type="Car" route="W_E" depart="0.0" departLane="random" departSpeed="10" />
    <vehicle id="S_N_131" type="Car" route="S_N" depart="0.0" departLane="random" departSpeed="10" />
    <vehicle id="S_N_132" type="Car" route="S_N" depart="0.0" departLane="random" departSpeed="10" />
    <vehicle id="E_W_133" type="Car" route="E_W" depart="0.0" departLane="random" departSpeed="10" />
    <vehicle id="W_E_134" type="Car" route="W_E" depart="0.0" departLane="random" departSpeed="10" />
    <vehicle id="N_S_135" type="Car" route="N_S" depart="0.0" departLane="random" departSpeed="10" />
    <vehicle id="N_S_136" type="Car" route="N_S" depart="0.0" departLane="random" departSpeed="10" />
    <vehicle id="W_E_137" type="Car" route="W_E" depart="0.0" departLane="random" departSpeed="10" />
    <vehicle id="S_N_138" type="Car" route="S_N" depart="0.0" departLane="random" departSpeed="10" />
    <vehicle id="N_S_139" type="Car" route="N_S" depart="0.0" departLane="random" departSpeed="10" />
    <vehicle id="E_S_140" type="Car" route="E_S" depart="0.0" departLane="random" departSpeed="10" />
    <vehicle id="S_N_141" type="Car" route="S_N" depart="0.0" departLane="random" departSpeed="10" />
    <vehicle id="E_W_142" type="Car" route="E_W" depart="0.0" departLane="random" departSpeed="10" />
    <vehicle id="E_S_143" type="Car" route="E_S" depart="0.0" departLane="random" departSpeed="10" />
    <vehicle id="E_W_144" type="Car" route="E_W" depart="0.0" departLane="random" departSpeed="10" />
    <vehicle id="N_S_145" type="Car" route="N_S" depart="0.0" departLane="random" departSpeed="10" />
    <vehicle id="N_E_146" type="Car" route="N_E" depart="0.0" departLane="random" departSpeed="10" />
    <vehicle id="N_S_147" type="Car" route="N_S" depart="0.0" departLane="random" departSpeed="10" />
    <vehicle id="S_N_148" type="Car" route="S_N" depart="0.0" departLane="random" departSpeed="10" />
    <vehicle id="E_W_149" type="Car" route="E_W" depart="0.0" departLane="random" departSpeed="10" />
    <vehicle id="N_S_150" type="Car" route="N_S" depart="0.0" departLane="random" departSpeed="10" />
    <vehicle id="W_E_151" type="Car" route="W_E" depart="0.0" departLane="random" departSpeed="10" />
    <vehicle id="S_N_152" type="Car" route="S_N" depart="0.0" departLane="random" departSpeed="10" />
    <vehicle id="E_W_153" type="Car" route="E_W" depart="0.0" departLane="random" departSpeed="10" />
    <vehicle id="W_N_154" type="Car" route="W_N" depart="0.0" departLane="random" departSpeed="10" />
    <vehicle id="E_W_155" type="Car" route="E_W" depart="0.0" departLane="random" departSpeed="10" />
    <vehicle id="S_N_156" type="Car" route="S_N" depart="0.0" departLane="random" departSpeed="10" />
    <vehicle id="S_N_157" type="Car" route="S_N" depart="0.0" departLane="random" departSpeed="10" />
    <vehicle id="W_E_158" type="Car" route="W_E" depart="0.0" departLane="random" departSpeed="10" />
    <vehicle id="N_S_159" type="Car" route="N_S" depart="0.0" departLane="random" departSpeed="10" />
    <vehicle id="S_N_160" type="Car" route="S_N" depart="0.0" departLane="random" departSpeed="10" />
    <vehicle id="W_E_161" type="Car" route="W_E" depart="0.0" departLane="random" departSpeed="10" />
    <vehicle id="N_S_162" type="Car" route="N_S" depart="0.0" departLane="random" departSpeed="10" />
    <vehicle id="N_S_163" type="Car" route="N_S" depart="0.0" departLane="random" departSpeed="10" />
    <vehicle id="N_E_164" type="Car" route="N_E" depart="0.0" departLane="random" departSpeed="10" />
    <vehicle id="W_E_165" type="Car" route="W_E" depart="0.0" departLane="random" departSpeed="10" />
    <vehicle id="E_N_166" type="Car" route="E_N" depart="0.0" departLane="random" departSpeed="10" />
    <vehicle id="E_W_167" type="Car" route="E_W" depart="0.0" departLane="random" departSpeed="10" />
    <vehicle id="S_N_168" type="Car" route="S_N" depart="0.0" departLane="random" departSpeed="10" />
    <vehicle id="S_N_169" type="Car" route="S_N" depart="0.0" departLane="random" departSpeed="10" />
    <vehicle id="S_E_170" type="Car" route="S_E" depart="0.0" departLane="random" departSpeed="10" />
    <vehicle id="S_W_171" type="Car" route="S_W" depart="0.0" departLane="random" departSpeed="10" />
    <vehicle id="N_S_172" type="Car" route="N_S" depart="0.0" departLane="random" departSpeed="10" />
    <vehicle id="E_W_173" type="Car" route="E_W" depart="0.0" departLane="random" departSpeed="10" />
    <vehicle id="E_W_174" type="Car" route="E_W" depart="0.0" departLane="random" departSpeed="10" />
    <vehicle id="N_S_175" type="Car" route="N_S" depart="0.0" departLane="random" departSpeed="10" />
    <vehicle id="N_S_176" type="Car" route="N_S" depart="0.0" departLane="random" departSpeed="10" />
    <vehicle id="W_E_177" type="Car" route="W_E" depart="0.0" departLane="random" departSpeed="10" />
    <vehicle id="W_S_178" type="Car" route="W_S" depart="0.0" departLane="random" departSpeed="10" />
    <vehicle id="W_E_179" type="Car" route="W_E" depart="0.0" departLane="random" departSpeed="10" />
    <vehicle id="S_E_180" type="Car" route="S_E" depart="0.0" departLane="random" departSpeed="10" />
    <vehicle id="E_W_181" type="Car" route="E_W" depart="0.0" departLane="random" departSpeed="10" />
    <vehicle id="W_S_182" type="Car" route="W_S" depart="0.0" departLane="random" departSpeed="10" />
    <vehicle id="S_N_183" type="Car" route="S_N" depart="0.0" departLane="random" departSpeed="10" />
    <vehicle id="W_E_184" type="Car" route="W_E" depart="0.0" departLane="random" departSpeed="10" />
    <vehicle id="S_W_185" type="Car" route="S_W" depart="0.0" departLane="random" departSpeed="10" />
    <vehicle id="E_N_186" type="Car" route="E_N" depart="0.0" departLane="random" departSpeed="10" />
    <vehicle id="S_W_187" type="Car" route="S_W" depart="0.0" departLane="random" departSpeed="10" />
    <vehicle id="S_N_188" type="Car" route="S_N" depart="0.0" departLane="random" departSpeed="10" />
    <vehicle id="E_S_189" type="Car" route="E_S" depart="0.0" departLane="random" departSpeed="10" />
    <vehicle id="W_E_190" type="Car" route="W_E" depart="0.0" departLane="random" departSpeed="10" />
    <vehicle id="N_S_191" type="Car" route="N_S" depart="0.0" departLane="random" departSpeed="10" />
    <vehicle id="W_E_192" type="Car" route="W_E" depart="0.0" departLane="random" departSpeed="10" />
    <vehicle id="N_S_193" type="Car" route="N_S" depart="0.0" departLane="random" departSpeed="10" />
    <vehicle id="W_E_194" type="Car" route="W_E" depart="0.0" departLane="random" departSpeed="10" />
    <vehicle id="W_N_195" type="Car" route="W_N" depart="0.0" departLane="random" departSpeed="10" />
    <vehicle id="E_W_196" type="Car" route="E_W" depart="0.0" departLane="random" departSpeed="10" />
    <vehicle id="S_N_197" type="Car" route="S_N" depart="0.0" departLane="random" departSpeed="10" />
    <vehicle id="S_W_198" type="Car" route="S_W" depart="0.0" departLane="random" departSpeed="10" />
    <vehicle id="E_W_199" type="Car" route="E_W" depart="0.0" departLane="random" departSpeed="10" />
    <vehicle id="S_N_200" type="Car" route="S_N" depart="0.0" departLane="random" departSpeed="10" />
    <vehicle id="N_S_201" type="Car" route="N_S" depart="0.0" departLane="random" departSpeed="10" />
    <vehicle id="S_N_202" type="Car" route="S_N" depart="0.0" departLane="random" departSpeed="10" />
    <vehicle id="E_W_203" type="Car" route="E_W" depart="0.0" departLane="random" departSpeed="10" />
    <vehicle id="N_W_204" type="Car" route="N_W" depart="0.0" departLane="random" departSpeed="10" />
    <vehicle id="S_W_205" type="Car" route="S_W" depart="0.0" departLane="random" departSpeed="10" />
    <vehicle id="N_S_206" type="Car" route="N_S" depart="0.0" departLane="random" departSpeed="10" />
    <vehicle id="S_N_207" type="Car" route="S_N" depart="0.0" departLane="random" departSpeed="10" />
    <vehicle id="W_N_208" type="Car" route="W_N" depart="0.0" departLane="random" departSpeed="10" />
    <vehicle id="N_S_209" type="Car" route="N_S" depart="0.0" departLane="random" departSpeed="10" />
    <vehicle id="W_E_210" type="Car" route="W_E" depart="0.0" departLane="random" departSpeed="10" />
    <vehicle id="N_S_211" type="Car" route="N_S" depart="0.0" departLane="random" departSpeed="10" />
    <vehicle id="N_S_212" type="Car" route="N_S" depart="0.0" departLane="random" departSpeed="10" />
    <vehicle id="N_S_213" type="Car" route="N_S" depart="0.0" departLane="random" departSpeed="10" />
    <vehicle id="E_W_214" type="Car" route="E_W" depart="0.0" departLane="random" departSpeed="10" />
    <vehicle id="E_N_215" type="Car" route="E_N" depart="0.0" departLane="random" departSpeed="10" />
    <vehicle id="N_S_216" type="Car" route="N_S" depart="0.0" departLane="random" departSpeed="10" />
    <vehicle id="E_W_217" type="Car" route="E_W" depart="0.0" departLane="random" departSpeed="10" />
    <vehicle id="W_E_218" type="Car" route="W_E" depart="0.0" departLane="random" departSpeed="10" />
    <vehicle id="N_S_219" type="Car" route="N_S" depart="0.0" departLane="random" departSpeed="10" />
    <vehicle id="N_W_220" type="Car" route="N_W" depart="0.0" departLane="random" departSpeed="10" />
    <vehicle id="S_E_221" type="Car" route="S_E" depart="0.0" departLane="random" departSpeed="10" />
    <vehicle id="S_N_222" type="Car" route="S_N" depart="0.0" departLane="random" departSpeed="10" />
    <vehicle id="E_W_223" type="Car" route="E_W" depart="0.0" departLane="random" departSpeed="10" />
    <vehicle id="E_W_224" type="Car" route="E_W" depart="0.0" departLane="random" departSpeed="10" />
    <vehicle id="N_S_225" type="Car" route="N_S" depart="0.0" departLane="random" departSpeed="10" />
    <vehicle id="E_W_226" type="Car" route="E_W" depart="0.0" departLane="random" departSpeed="10" />
    <vehicle id="S_W_227" type="Car" route="S_W" depart="0.0" departLane="random" departSpeed="10" />
    <vehicle id="S_N_228" type="Car" route="S_N" depart="0.0" departLane="random" departSpeed="10" />
    <vehicle id="N_E_229" type="Car" route="N_E" depart="0.0" departLane="random" departSpeed="10" />
    <vehicle id="E_S_230" type="Car" route="E_S" depart="0.0" departLane="random" departSpeed="10" />
    <vehicle id="S_N_231" type="Car" route="S_N" depart="0.0" departLane="random" departSpeed="10" />
    <vehicle id="S_N_232" type="Car" route="S_N" depart="0.0" departLane="random" departSpeed="10" />
    <vehicle id="S_N_233" type="Car" route="S_N" depart="0.0" departLane="random" departSpeed="10" />
    <vehicle id="E_W_234" type="Car" route="E_W" depart="0.0" departLane="random" departSpeed="10" />
    <vehicle id="E_W_235" type="Car" route="E_W" depart="0.0" departLane="random" departSpeed="10" />
    <vehicle id="N_S_236" type="Car" route="N_S" depart="0.0" departLane="random" departSpeed="10" />
    <vehicle id="N_W_237" type="Car" route="N_W" depart="0.0" departLane="random" departSpeed="10" />
    <vehicle id="E_W_238" type="Car" route="E_W" depart="0.0" departLane="random" departSpeed="10" />
    <vehicle id="E_W_239" type="Car" route="E_W" depart="0.0" departLane="random" departSpeed="10" />
    <vehicle id="E_W_240" type="Car" route="E_W" depart="0.0" departLane="random" departSpeed="10" />
    <vehicle id="W_E_241" type="Car" route="W_E" depart="0.0" departLane="random" departSpeed="10" />
    <vehicle id="S_E_242" type="Car" route="S_E" depart="0.0" departLane="random" departSpeed="10" />
    <vehicle id="E_W_243" type="Car" route="E_W" depart="0.0" departLane="random" departSpeed="10" />
    <vehicle id="E_W_244" type="Car" route="E_W" depart="0.0" departLane="random" departSpeed="10" />
    <vehicle id="W_E_245" type="Car" route="W_E" depart="0.0" departLane="random" departSpeed="10" />
    <vehicle id="E_W_246" type="Car" route="E_W" depart="0.0" departLane="random" departSpeed="10" />
    <vehicle id="S_N_247" type="Car" route="S_N" depart="0.0" departLane="random" departSpeed="10" />
    <vehicle id="W_E_248" type="Car" route="W_E" depart="0.0" departLane="random" departSpeed="10" />
    <vehicle id="W_E_249" type="Car" route="W_E" depart="0.0" departLane="random" departSpeed="10" />
    <vehicle id="E_W_250" type="Car" route="E_W" depart="0.0" departLane="random" departSpeed="10" />
    <vehicle id="S_N_251" type="Car" route="S_N" depart="0.0" departLane="random" departSpeed="10" />
    <vehicle id="N_S_252" type="Car" route="N_S" depart="0.0" departLane="random" departSpeed="10" />
    <vehicle id="E_W_253" type="Car" route="E_W" depart="0.0" departLane="random" departSpeed="10" />
    <vehicle id="N_S_254" type="Car" route="N_S" depart="0.0" departLane="random" departSpeed="10" />
    <vehicle id="W_E_255" type="Car" route="W_E" depart="0.0" departLane="random" departSpeed="10" />
    <vehicle id="S_E_256" type="Car" route="S_E" depart="0.0" departLane="random" departSpeed="10" />
    <vehicle id="S_N_257" type="Car" route="S_N" depart="0.0" departLane="random" departSpeed="10" />
    <vehicle id="W_E_258" type="Car" route="W_E" depart="0.0" departLane="random" departSpeed="10" />
    <vehicle id="W_E_259" type="Car" route="W_E" depart="0.0" departLane="random" departSpeed="10" />
    <vehicle id="S_N_260" type="Car" route="S_N" depart="0.0" departLane="random" departSpeed="10" />
    <vehicle id="S_N_261" type="Car" route="S_N" depart="0.0" departLane="random" departSpeed="10" />
    <vehicle id="W_E_262" type="Car" route="W_E" depart="0.0" departLane="random" departSpeed="10" />
    <vehicle id="N_S_263" type="Car" route="N_S" depart="0.0" departLane="random" departSpeed="10" />
    <vehicle id="W_E_264" type="Car" route="W_E" depart="0.0" departLane="random" departSpeed="10" />
    <vehicle id="S_W_265" type="Car" route="S_W" depart="0.0" departLane="random" departSpeed="10" />
    <vehicle id="E_S_266" type="Car" route="E_S" depart="0.0" departLane="random" departSpeed="10" />
    <vehicle id="E_W_267" type="Car" route="E_W" depart="0.0" departLane="random" departSpeed="10" />
    <vehicle id="S_N_268" type="Car" route="S_N" depart="0.0" departLane="random" departSpeed="10" />
    <vehicle id="N_S_269" type="Car" route="N_S" depart="0.0" departLane="random" departSpeed="10" />
    <vehicle id="S_W_270" type="Car" route="S_W" depart="0.0" departLane="random" departSpeed="10" />
    <vehicle id="N_S_271" type="Car" route="N_S" depart="0.0" departLane="random" departSpeed="10" />
    <vehicle id="W_E_272" type="Car" route="W_E" depart="0.0" departLane="random" departSpeed="10" />
    <vehicle id="E_W_273" type="Car" route="E_W" depart="0.0" departLane="random" departSpeed="10" />
    <vehicle id="N_W_274" type="Car" route="N_W" depart="0.0" departLane="random" departSpeed="10" />
    <vehicle id="S_W_275" type="Car" route="S_W" depart="0.0" departLane="random" departSpeed="10" />
    <vehicle id="S_N_276" type="Car" route="S_N" depart="0.0" departLane="random" departSpeed="10" />
    <vehicle id="S_E_277" type="Car" route="S_E" depart="0.0" departLane="random" departSpeed="10" />
    <vehicle id="E_W_278" type="Car" route="E_W" depart="0.0" departLane="random" departSpeed="10" />
    <vehicle id="W_E_279" type="Car" route="W_E" depart="0.0" departLane="random" departSpeed="10" />
    <vehicle id="W_E_280" type="Car" route="W_E" depart="0.0" departLane="random" departSpeed="10" />
    <vehicle id="S_N_281" type="Car" route="S_N" depart="0.0" departLane="random" departSpeed="10" />
    <vehicle id="S_N_282" type="Car" route="S_N" depart="0.0" departLane="random" departSpeed="10" />
    <vehicle id="E_W_283" type="Car" route="E_W" depart="0.0" departLane="random" departSpeed="10" />
    <vehicle id="E_W_284" type="Car" route="E_W" depart="0.0" departLane="random" departSpeed="10" />
    <vehicle id="W_E_285" type="Car" route="W_E" depart="0.0" departLane="random" departSpeed="10" />
    <vehicle id="N_S_286" type="Car" route="N_S" depart="0.0" departLane="random" departSpeed="10" />
    <vehicle id="S_W_287" type="Car" route="S_W" depart="0.0" departLane="random" departSpeed="10" />