<routes>
            <vType accel="1.0" decel="4.5" id="Car" length="5.0" minGap="2.5" maxSpeed="25" sigma="0.5" />

            <route id="W_N" edges="W2TL TL2N"/>
            <route id="W_E" edges="W2TL TL2E"/>
            <route id="W_S" edges="W2TL TL2S"/>
            <route id="N_W" edges="N2TL TL2W"/>
            <route id="N_E" edges="N2TL TL2E"/>
            <route id="N_S" edges="N2TL TL2S"/>
            <route id="E_W" edges="E2TL TL2W"/>
            <route id="E_N" edges="E2TL TL2N"/>
            <route id="E_S" edges="E2TL TL2S"/>
            <route id="S_W" edges="S2TL TL2W"/>
            <route id="S_N" edges="S2TL TL2N"/>
            <route id="S_E" edges="S2TL TL2E"/>
    <vehicle id="N_S_0" type="Car" route="N_S" depart="15.0" departLane="random" departSpeed="10" />
    <vehicle id="W_S_1" type="Car" route="W_S" depart="15.0" departLane="random" departSpeed="10" />
    <vehicle id="S_N_2" type="Car" route="S_N" depart="15.0" departLane="random" departSpeed="10" />
    <vehicle id="N_S_3" type="Car" route="N_S" depart="15.0" departLane="random" departSpeed="10" />
    <vehicle id="S_N_4" type="Car" route="S_N" depart="15.0" departLane="random" departSpeed="10" />
    <vehicle id="E_W_5" type="Car" route="E_W" depart="15.0" departLane="random" departSpeed="10" />
    <vehicle id="N_S_6" type="Car" route="N_S" depart="15.0" departLane="random" departSpeed="10" />
    <vehicle id="N_E_7" type="Car" route="N_E" depart="15.0" departLane="random" departSpeed="10" />
    <vehicle id="E_W_8" type="Car" route="E_W" depart="15.0" departLane="random" departSpeed="10" />
    <vehicle id="W_E_9" type="Car" route="W_E" depart="15.0" departLane="random" departSpeed="10" />
    <vehicle id="S_E_10" type="Car" route="S_E" depart="15.0" departLane="random" departSpeed="10" />
    <vehicle id="N_S_11" type="Car" route="N_S" depart="15.0" departLane="random" departSpeed="10" />
    <vehicle id="W_E_12" type="Car" route="W_E" depart="15.0" departLane="random" departSpeed="10" />
    <vehicle id="N_W_13" type="Car" route="N_W" depart="15.0" departLane="random" departSpeed="10" />
    <vehicle id="N_S_14" type="Car" route="N_S" depart="15.0" departLane="random" departSpeed="10" />
    <vehicle id="S_N_15" type="Car" route="S_N" depart="15.0" departLane="random" departSpeed="10" />
    <vehicle id="W_S_16" type="Car" route="W_S" depart="15.0" departLane="random" departSpeed="10" />
    <vehicle id="E_W_17" type="Car" route="E_W" depart="15.0" departLane="random" departSpeed="10" />
    <vehicle id="N_S_18" type="Car" route="N_S" depart="15.0" departLane="random" departSpeed="10" />
    <vehicle id="S_N_19" type="Car" route="S_N" depart="15.0" departLane="random" departSpeed="10" />
    <vehicle id="E_W_20" type="Car" route="E_W" depart="15.0" departLane="random" departSpeed="10" />
    <vehicle id="E_W_21" type="Car" route="E_W" depart="15.0" departLane="random" departSpeed="10" />
    <vehicle id="W_E_22" type="Car" route="W_E" depart="15.0" departLane="random" departSpeed="10" />
    <vehicle id="N_S_23" type="Car" route="N_S" depart="15.0" departLane="random" departSpeed="10" />
    <vehicle id="E_N_24" type="Car" route="E_N" depart="15.0" departLane="random" departSpeed="10" />
    <vehicle id="S_N_25" type="Car" route="S_N" depart="15.0" departLane="random" departSpeed="10" />
    <vehicle id="W_E_26" type="Car" route="W_E" depart="15.0" departLane="random" departSpeed="10" />
    <vehicle id="E_W_27" type="Car" route="E_W" depart="15.0" departLane="random" departSpeed="10" />
    <vehicle id="N_S_28" type="Car" route="N_S" depart="15.0" departLane="random" departSpeed="10" />
    <vehicle id="E_S_29" type="Car" route="E_S" depart="15.0" departLane="random" departSpeed="10" />
    <vehicle id="E_W_30" type="Car" route="E_W" depart="15.0" departLane="random" departSpeed="10" />
    <vehicle id="E_W_31" type="Car" route="E_W" depart="15.0" departLane="random" departSpeed="10" />
    <vehicle id="S_N_32" type="Car" route="S_N" depart="15.0" departLane="random" departSpeed="10" />
    <vehicle id="E_W_33" type="Car" route="E_W" depart="15.0" departLane="random" departSpeed="10" />
    <vehicle id="S_E_34" type="Car" route="S_E" depart="15.0" departLane="random" departSpeed="10" />
    <vehicle id="E_W_35" type="Car" route="E_W" depart="15.0" departLane="random" departSpeed="10" />
    <vehicle id="N_S_36" type="Car" route="N_S" depart="15.0" departLane="random" departSpeed="10" />
    <vehicle id="S_N_37" type="Car" route="S_N" depart="15.0" departLane="random" departSpeed="10" />
    <vehicle id="E_S_38" type="Car" route="E_S" depart="15.0" departLane="random" departSpeed="10" />
    <vehicle id="N_S_39" type="Car" route="N_S" depart="15.0" departLane="random" departSpeed="10" />
    <vehicle id="N_S_40" type="Car" route="N_S" depart="15.0" departLane="random" departSpeed="10" />
    <vehicle id="W_N_41" type="Car" route="W_N" depart="15.0" departLane="random" departSpeed="10" />
    <vehicle id="E_W_42" type="Car" route="E_W" depart="15.0" departLane="random" departSpeed="10" />
    <vehicle id="W_E_43" type="Car" route="W_E" depart="15.0" departLane="random" departSpeed="10" />
    <vehicle id="E_W_44" type="Car" route="E_W" depart="15.0" departLane="random" departSpeed="10" />
    <vehicle id="W_E_45" type="Car" route="W_E" depart="15.0" departLane="random" departSpeed="10" />
    <vehicle id="W_E_46" type="Car" route="W_E" depart="15.0" departLane="random" departSpeed="10" />
    <vehicle id="N_S_47" type="Car" route="N_S" depart="15.0" departLane="random" departSpeed="10" />
    <vehicle id="S_N_48" type="Car" route="S_N" depart="15.0" departLane="random" departSpeed="10" />
    <vehicle id="N_S_49" type="Car" route="N_S" depart="15.0" departLane="random" departSpeed="10" />
    <vehicle id="S_W_50" type="Car" route="S_W" depart="15.0" departLane="random" departSpeed="10" />
    <vehicle id="W_E_51" type="Car" route="W_E" depart="15.0" departLane="random" departSpeed="10" />
    <vehicle id="N_S_52" type="Car" route="N_S" depart="15.0" departLane="random" departSpeed="10" />
    <vehicle id="S_N_53" type="Car" route="S_N" depart="15.0" departLane="random" departSpeed="10" />
    <vehicle id="W_N_54" type="Car" route="W_N" depart="15.0" departLane="random" departSpeed="10" />
    <vehicle id="W_E_55" type="Car" route="W_E" depart="15.0" departLane="random" departSpeed="10" />
    <vehicle id="W_E_56" type="Car" route="W_E" depart="15.0" departLane="random" departSpeed="10" />
    <vehicle id="N_E_57" type="Car" route="N_E" depart="15.0" departLane="random" departSpeed="10" />
    <vehicle id="S_N_58" type="Car" route="S_N" depart="15.0" departLane="random" departSpeed="10" />
    <vehicle id="E_W_59" type="Car" route="E_W" depart="15.0" departLane="random" departSpeed="10" />
    <vehicle id="W_E_60" type="Car" route="W_E" depart="15.0" departLane="random" departSpeed="10" />
    <vehicle id="N_S_61" type="Car" route="N_S" depart="15.0" departLane="random" departSpeed="10" />
    <vehicle id="S_N_62" type="Car" route="S_N" depart="15.0" departLane="random" departSpeed="10" />
    <vehicle id="N_S_63" type="Car" route="N_S" depart="15.0" departLane="random" departSpeed="10" />
    <vehicle id="N_S_64" type="Car" route="N_S" depart="15.0" departLane="random" departSpeed="10" />
    <vehicle id="E_W_65" type="Car" route="E_W" depart="15.0" departLane="random" departSpeed="10" />
    <vehicle id="E_W_66" type="Car" route="E_W" depart="15.0" departLane="random" departSpeed="10" />
    <vehicle id="S_N_67" type="Car" route="S_N" depart="15.0" departLane="random" departSpeed="10" />
    <vehicle id="E_W_68" type="Car" route="E_W" depart="15.0" departLane="random" departSpeed="10" />
    <vehicle id="N_S_69" type="Car" route="N_S" depart="15.0" departLane="random" departSpeed="10" />
    <vehicle id="W_E_70" type="Car" route="W_E" depart="15.0" departLane="random" departSpeed="10" />
    <vehicle id="N_S_71" type="Car" route="N_S" depart="15.0" departLane="random" departSpeed="10" />
    <vehicle id="W_E_72" type="Car" route="W_E" depart="15.0" departLane="random" departSpeed="10" />
    <vehicle id="E_W_73" type="Car" route="E_W" depart="15.0" departLane="random" departSpeed="10" />
    <vehicle id="W_E_74" type="Car" route="W_E" depart="15.0" departLane="random" departSpeed="10" />
    <vehicle id="S_N_75" type="Car" route="S_N" depart="15.0" departLane="random" departSpeed="10" />
    <vehicle id="N_S_76" type="Car" route="N_S" depart="15.0" departLane="random" departSpeed="10" />
    <vehicle id="S_N_77" type="Car" route="S_N" depart="15.0" departLane="random" departSpeed="10" />
    <vehicle id="S_N_78" type="Car" route="S_N" depart="15.0" departLane="random" departSpeed="10" />
    <vehicle id="N_S_79" type="Car" route="N_S" depart="15.0" departLane="random" departSpeed="10" />
    <vehicle id="N_E_80" type="Car" route="N_E" depart="15.0" departLane="random" departSpeed="10" />
    <vehicle id="N_W_81" type="Car" route="N_W" depart="15.0" departLane="random" departSpeed="10" />
    <vehicle id="W_E_82" type="Car" route="W_E" depart="15.0" departLane="random" departSpeed="10" />
    <vehicle id="E_W_83" type="Car" route="E_W" depart="15.0" departLane="random" departSpeed="10" />
    <vehicle id="E_W_84" type="Car" route="E_W" depart="15.0" departLane="random" departSpeed="10" />
    <vehicle id="E_W_85" type="Car" route="E_W" depart="15.0" departLane="random" departSpeed="10" />
    <vehicle id="N_E_86" type="Car" route="N_E" depart="15.0" departLane="random" departSpeed="10" />
    <vehicle id="W_E_87" type="Car" route="W_E" depart="15.0" departLane="random" departSpeed="10" />
    <vehicle id="E_W_88" type="Car" route="E_W" depart="15.0" departLane="random" departSpeed="10" />
    <vehicle id="W_S_89" type="Car" route="W_S" depart="15.0" departLane="random" departSpeed="10" />
    <vehicle id="W_S_90" type="Car" route="W_S" depart="15.0" departLane="random" departSpeed="10" />
    <vehicle id="N_E_91" type="Car" route="N_E" depart="15.0" departLane="random" departSpeed="10" />
    <vehicle id="N_S_92" type="Car" route="N_S" depart="15.0" departLane="random" departSpeed="10" />
    <vehicle id="W_E_93" type="Car" route="W_E" depart="15.0" departLane="random" departSpeed="10" />
    <vehicle id="E_N_94" type="Car" route="E_N" depart="15.0" departLane="random" departSpeed="10" />
    <vehicle id="S_E_95" type="Car" route="S_E" depart="15.0" departLane="random" departSpeed="10" />
    <vehicle id="W_E_96" type="Car" route="W_E" depart="15.0" departLane="random" departSpeed="10" />
    <vehicle id="W_E_97" type="Car" route="W_E" depart="15.0" departLane="random" departSpeed="10" />
    <vehicle id="E_N_98" type="Car" route="E_N" depart="15.0" departLane="random" departSpeed="10" />
    <vehicle id="S_N_99" type="Car" route="S_N" depart="15.0" departLane="random" departSpeed="10" />
    <vehicle id="N_E_100" type="Car" route="N_E" depart="15.0" departLane="random" departSpeed="10" />
    <vehicle id="N_S_101" type="Car" route="N_S" depart="15.0" departLane="random" departSpeed="10" />
    <vehicle id="E_W_102" type="Car" route="E_W" depart="15.0" departLane="random" departSpeed="10" />
    <vehicle id="N_W_103" type="Car" route="N_W" depart="15.0" departLane="random" departSpeed="10" />
    <vehicle id="N_S_104" type="Car" route="N_S" depart="15.0" departLane="random" departSpeed="10" />
    <vehicle id="E_W_105" type="Car" route="E_W" depart="15.0" departLane="random" departSpeed="10" />
    <vehicle id="W_E_106" type="Car" route="W_E" depart="15.0" departLane="random" departSpeed="10" />
    <vehicle id="S_N_107" type="Car" route="S_N" depart="15.0" departLane="random" departSpeed="10" />
    <vehicle id="W_E_108" type="Car" route="W_E" depart="15.0" departLane="random" departSpeed="10" />
    <vehicle id="S_N_109" type="Car" route="S_N" depart="15.0" departLane="random" departSpeed="10" />
    <vehicle id="E_W_110" type="Car" route="E_W" depart="15.0" departLane="random" departSpeed="10" />
    <vehicle id="S_E_111" type="Car" route="S_E" depart="15.0" departLane="random" departSpeed="10" />
    <vehicle id="E_W_112" type="Car" route="E_W" depart="15.0" departLane="random" departSpeed="10" />
    <vehicle id="E_W_113" type="Car" route="E_W" depart="15.0" departLane="random" departSpeed="10" />
    <vehicle id="N_W_114" type="Car" route="N_W" depart="15.0" departLane="random" departSpeed="10" />
    <vehicle id="N_S_115" type="Car" route="N_S" depart="15.0" departLane="random" departSpeed="10" />
    <vehicle id="W_E_116" type="Car" route="W_E" depart="15.0" departLane="random" departSpeed="10" />
    <vehicle id="E_W_117" type="Car" route="E_W" depart="15.0" departLane="random" departSpeed="10" />
    <vehicle id="W_E_118" type="Car" route="W_E" depart="15.0" departLane="random" departSpeed="10" />
    <vehicle id="E_W_119" type="Car" route="E_W" depart="15.0" departLane="random" departSpeed="10" />
    <vehicle id="N_E_120" type="Car" route="N_E" depart="15.0" departLane="random" departSpeed="10" />
    <vehicle id="W_N_121" type="Car" route="W_N" depart="15.0" departLane="random" departSpeed="10" />
    <vehicle id="N_S_122" type="Car" route="N_S" depart="15.0" departLane="random" departSpeed="10" />
    <vehicle id="S_N_123" type="Car" route="S_N" depart="15.0" departLane="random" departSpeed="10" />
    <vehicle id="W_N_124" type="Car" route="W_N" depart="15.0" departLane="random" departSpeed="10" />
    <vehicle id="S_E_125" type="Car" route="S_E" depart="15.0" departLane="random" departSpeed="10" />
    <vehicle id="E_W_126" type="Car" route="E_W" depart="15.0" departLane="random" departSpeed="10" />
    <vehicle id="W_E_127" type="Car" route="W_E" depart="15.0" departLane="random" departSpeed="10" />
    <vehicle id="S_N_128" type="Car" route="S_N" depart="15.0" departLane="random" departSpeed="10" />
    <vehicle id="E_W_129" type="Car" route="E_W" depart="15.0" departLane="random" departSpeed="10" />
    <vehicle id="E_W_130" type="Car" route="E_W" depart="15.0" departLane="random" departSpeed="10" />
    <vehicle id="W_E_131" type="Car" route="W_E" depart="15.0" departLane="random" departSpeed="10" />
    <vehicle id="W_E_132" type="Car" route="W_E" depart="15.0" departLane="random" departSpeed="10" />
    <vehicle id="S_N_133" type="Car" route="S_N" depart="15.0" departLane="random" departSpeed="10" />
    <vehicle id="N_S_134" type="Car" route="N_S" depart="15.0" departLane="random" departSpeed="10" />
    <vehicle id="N_S_135" type="Car" route="N_S" depart="15.0" departLane="random" departSpeed="10" />
    <vehicle id="S_N_136" type="Car" route="S_N" depart="15.0" departLane="random" departSpeed="10" />
    <vehicle id="N_S_137" type="Car" route="N_S" depart="15.0" departLane="random" departSpeed="10" />
    <vehicle id="S_E_138" type="Car" route="S_E" depart="15.0" departLane="random" departSpeed="10" />
    <vehicle id="E_N_139" type="Car" route="E_N" depart="15.0" departLane="random" departSpeed="10" />
    <vehicle id="W_E_140" type="Car" route="W_E" depart="15.0" departLane="random" departSpeed="10" />
    <vehicle id="S_N_141" type="Car" route="S_N" depart="15.0" departLane="random" departSpeed="10" />
    <vehicle id="N_E_142" type="Car" route="N_E" depart="15.0" departLane="random" departSpeed="10" />
    <vehicle id="E_S_143" type="Car" route="E_S" depart="15.0" departLane="random" departSpeed="10" />
    <vehicle id="W_N_144" type="Car" route="W_N" depart="15.0" departLane="random" departSpeed="10" />
    <vehicle id="N_S_145" type="Car" route="N_S" depart="15.0" departLane="random" departSpeed="10" />
    <vehicle id="S_N_146" type="Car" route="S_N" depart="15.0" departLane="random" departSpeed="10" />
    <vehicle id="S_N_147" type="Car" route="S_N" depart="15.0" departLane="random" departSpeed="10" />
    <vehicle id="N_S_148" type="Car" route="N_S" depart="15.0" departLane="random" departSpeed="10" />
    <vehicle id="W_E_149" type="Car" route="W_E" depart="15.0" departLane="random" departSpeed="10" />
    <vehicle id="N_E_150" type="Car" route="N_E" depart="15.0" departLane="random" departSpeed="10" />
    <vehicle id="W_N_151" type="Car" route="W_N" depart="15.0" departLane="random" departSpeed="10" />
    <vehicle id="N_S_152" type="Car" route="N_S" depart="15.0" departLane="random" departSpeed="10" />
    <vehicle id="W_S_153" type="Car" route="W_S" depart="15.0" departLane="random" departSpeed="10" />
    <vehicle id="S_E_154" type="Car" route="S_E" depart="15.0" departLane="random" departSpeed="10" />
    <vehicle id="N_S_155" type="Car" route="N_S" depart="15.0" departLane="random" departSpeed="10" />
    <vehicle id="E_W_156" type="Car" route="E_W" depart="15.0" departLane="random" departSpeed="10" />
    <vehicle id="S_W_157" type="Car" route="S_W" depart="15.0" departLane="random" departSpeed="10" />
    <vehicle id="S_W_158" type="Car" route="S_W" depart="15.0" departLane="random" departSpeed="10" />
    <vehicle id="N_W_159" type="Car" route="N_W" depart="15.0" departLane="random" departSpeed="10" />
    <vehicle id="N_W_160" type="Car" route="N_W" depart="15.0" departLane="random" departSpeed="10" />
    <vehicle id="S_N_161" type="Car" route="S_N" depart="15.0" departLane="random" departSpeed="10" />
    <vehicle id="N_W_162" type="Car" route="N_W" depart="15.0" departLane="random" departSpeed="10" />
    <vehicle id="S_E_163" type="Car" route="S_E" depart="15.0" departLane="random" departSpeed="10" />
    <vehicle id="S_N_164" type="Car" route="S_N" depart="15.0" departLane="random" departSpeed="10" />
    <vehicle id="E_N_165" type="Car" route="E_N" depart="15.0" departLane="random" departSpeed="10" />
    <vehicle id="W_E_166" type="Car" route="W_E" depart="15.0" departLane="random" departSpeed="10" />
    <vehicle id="W_E_167" type="Car" route="W_E" depart="15.0" departLane="random" departSpeed="10" />
    <vehicle id="W_E_168" type="Car" route="W_E" depart="15.0" departLane="random" departSpeed="10" />
    <vehicle id="E_W_169" type="Car" route="E_W" depart="15.0" departLane="random" departSpeed="10" />
    <vehicle id="E_W_170" type="Car" route="E_W" depart="15.0" departLane="random" departSpeed="10" />
    <vehicle id="N_E_171" type="Car" route="N_E" depart="15.0" departLane="random" departSpeed="10" />
    <vehicle id="E_W_172" type="Car" route="E_W" depart="15.0" departLane="random" departSpeed="10" />
    <vehicle id="N_W_173" type="Car" route="N_W" depart="15.0" departLane="random" departSpeed="10" />
    <vehicle id="E_W_174" type="Car" route="E_W" depart="15.0" departLane="random" departSpeed="10" />
    <vehicle id="E_S_175" type="Car" route="E_S" depart="15.0" departLane="random" departSpeed="10" />
    <vehicle id="E_N_176" type="Car" route="E_N" depart="15.0" departLane="random" departSpeed="10" />
    <vehicle id="W_E_177" type="Car" route="W_E" depart="15.0" departLane="random" departSpeed="10" />
    <vehicle id="S_N_178" type="Car" route="S_N" depart="15.0" departLane="random" departSpeed="10" />
    <vehicle id="W_E_179" type="Car" route="W_E" depart="15.0" departLane="random" departSpeed="10" />
    <vehicle id="S_E_180" type="Car" route="S_E" depart="15.0" departLane="random" departSpeed="10" />
    <vehicle id="N_S_181" type="Car" route="N_S" depart="15.0" departLane="random" departSpeed="10" />
    <vehicle id="W_E_182" type="Car" route="W_E" depart="15.0" departLane="random" departSpeed="10" />
    <vehicle id="W_E_183" type="Car" route="W_E" depart="15.0" departLane="random" departSpeed="10" />
    <vehicle id="S_W_184" type="Car" route="S_W" depart="15.0" departLane="random" departSpeed="10" />
    <vehicle id="S_W_185" type="Car" route="S_W" depart="15.0" departLane="random" departSpeed="10" />
    <vehicle id="S_N_186" type="Car" route="S_N" depart="15.0" departLane="random" departSpeed="10" />
    <vehicle id="N_W_187" type="Car" route="N_W" depart="15.0" departLane="random" departSpeed="10" />
    <vehicle id="E_N_188" type="Car" route="E_N" depart="15.0" departLane="random" departSpeed="10" />
    <vehicle id="S_N_189" type="Car" route="S_N" depart="15.0" departLane="random" departSpeed="10" />
    <vehicle id="E_W_190" type="Car" route="E_W" depart="15.0" departLane="random" departSpeed="10" />
    <vehicle id="E_W_191" type="Car" route="E_W" depart="15.0" departLane="random" departSpeed="10" />
    <vehicle id="N_S_192" type="Car" route="N_S" depart="15.0" departLane="random" departSpeed="10" />
    <vehicle id="W_N_193" type="Car" route="W_N" depart="15.0" departLane="random" departSpeed="10" />
    <vehicle id="W_E_194" type="Car" route="W_E" depart="15.0" departLane="random" departSpeed="10" />
    <vehicle id="W_E_195" type="Car" route="W_E" depart="15.0" departLane="random" departSpeed="10" />
    <vehicle id="W_E_196" type="Car" route="W_E" depart="15.0" departLane="random" departSpeed="10" />
    <vehicle id="W_E_197" type="Car" route="W_E" depart="15.0" departLane="random" departSpeed="10" />
    <vehicle id="S_N_198" type="Car" route="S_N" depart="15.0" departLane="random" departSpeed="10" />
    <vehicle id="E_N_199" type="Car" route="E_N" depart="15.0" departLane="random" departSpeed="10" />
    <vehicle id="E_W_200" type="Car" route="E_W" depart="15.0" departLane="random" departSpeed="10" />
    <vehicle id="E_W_201" type="Car" route="E_W" depart="15.0" departLane="random" departSpeed="10" />
    <vehicle id="S_N_202" type="Car" route="S_N" depart="15.0" departLane="random" departSpeed="10" />
    <vehicle id="E_N_203" type="Car" route="E_N" depart="15.0" departLane="random" departSpeed="10" />
    <vehicle id="E_W_204" type="Car" route="E_W" depart="15.0" departLane="random" departSpeed="10" />
    <vehicle id="N_S_205" type="Car" route="N_S" depart="15.0" departLane="random" departSpeed="10" />
    <vehicle id="E_W_206" type="Car" route="E_W" depart="15.0" departLane="random" departSpeed="10" />
    <vehicle id="N_E_207" type="Car" route="N_E" depart="15.0" departLane="random" departSpeed="10" />
    <vehicle id="S_N_208" type="Car" route="S_N" depart="15.0" departLane="random" departSpeed="10" />
    <vehicle id="W_E_209" type="Car" route="W_E" depart="15.0" departLane="random" departSpeed="10" />
    <vehicle id="E_W_210" type="Car" route="E_W" depart="15.0" departLane="random" departSpeed="10" />
    <vehicle id="W_E_211" type="Car" route="W_E" depart="15.0" departLane="random" departSpeed="10" />
    <vehicle id="S_N_212" type="Car" route="S_N" depart="15.0" departLane="random" departSpeed="10" />
    <vehicle id="W_N_213" type="Car" route="W_N" depart="15.0" departLane="random" departSpeed="10" />
    <vehicle id="E_N_214" type="Car" route="E_N" depart="15.0" departLane="random" departSpeed="10" />
    <vehicle id="N_S_215" type="Car" route="N_S" depart="15.0" departLane="random" departSpeed="10" />
    <vehicle id="S_N_216" type="Car" route="S_N" depart="15.0" departLane="random" departSpeed="10" />
    <vehicle id="S_N_217" type="Car" route="S_N" depart="15.0" departLane="random" departSpeed="10" />
    <vehicle id="E_S_218" type="Car" route="E_S" depart="15.0" departLane="random" departSpeed="10" />
    <vehicle id="S_N_219" type="Car" route="S_N" depart="15.0" departLane="random" departSpeed="10" />
    <vehicle id="N_E_220" type="Car" route="N_E" depart="15.0" departLane="random" departSpeed="10" />
    <vehicle id="W_E_221" type="Car" route="W_E" depart="15.0" departLane="random" departSpeed="10" />
    <vehicle id="E_W_222" type="Car" route="E_W" depart="15.0" departLane="random" departSpeed="10" />
    <vehicle id="W_E_223" type="Car" route="W_E" depart="15.0" departLane="random" departSpeed="10" />
    <vehicle id="N_W_224" type="Car" route="N_W" depart="15.0" departLane="random" departSpeed="10" />
    <vehicle id="E_W_225" type="Car" route="E_W" depart="15.0" departLane="random" departSpeed="10" />
    <vehicle id="N_S_226" type="Car" route="N_S" depart="15.0" departLane="random" departSpeed="10" />
    <vehicle id="W_S_227" type="Car" route="W_S" depart="15.0" departLane="random" departSpeed="10" />
    <vehicle id="N_S_228" type="Car" route="N_S" depart="15.0" departLane="random" departSpeed="10" />
    <vehicle id="W_E_229" type="Car" route="W_E" depart="15.0" departLane="random" departSpeed="10" />
    <vehicle id="W_E_230" type="Car" route="W_E" depart="15.0" departLane="random" departSpeed="10" />
    <vehicle id="S_N_231" type="Car" route="S_N" depart="15.0" departLane="random" departSpeed="10" />
    <vehicle id="E_W_232" type="Car" route="E_W" depart="15.0" departLane="random" departSpeed="10" />
    <vehicle id="E_N_233" type="Car" route="E_N" depart="15.0" departLane="random" departSpeed="10" />
    <vehicle id="N_S_234" type="Car" route="N_S" depart="15.0" departLane="random" departSpeed="10" />
    <vehicle id="S_N_235" type="Car" route="S_N" depart="15.0" departLane="random" departSpeed="10" />
    <vehicle id="W_E_236" type="Car" route="W_E" depart="15.0" departLane="random" departSpeed="10" />
    <vehicle id="E_W_237" type="Car" route="E_W" depart="15.0" departLane="random" departSpeed="10" />
    <vehicle id="S_N_238" type="Car" route="S_N" depart="15.0" departLane="random" departSpeed="10" />
    <vehicle id="E_W_239" type="Car" route="E_W" depart="15.0" departLane="random" departSpeed="10" />
    <vehicle id="S_N_240" type="Car" route="S_N" depart="15.0" departLane="random" departSpeed="10" />
    <vehicle id="E_W_241" type="Car" route="E_W" depart="15.0" departLane="random" departSpeed="10" />
    <vehicle id="S_N_242" type="Car" route="S_N" depart="15.0" departLane="random" departSpeed="10" />
    <vehicle id="N_S_243" type="Car" route="N_S" depart="15.0" departLane="random" departSpeed="10" />
    <vehicle id="W_E_244" type="Car" route="W_E" depart="15.0" departLane="random" departSpeed="10" />
    <vehicle id="S_N_245" type="Car" route="S_N" depart="15.0" departLane="random" departSpeed="10" />
    <vehicle id="W_E_246" type="Car" route="W_E" depart="15.0" departLane="random" departSpeed="10" />
    <vehicle id="N_S_247" type="Car" route="N_S" depart="15.0" departLane="random" departSpeed="10" />
    <vehicle id="S_N_248" type="Car" route="S_N" depart="15.0" departLane="random" departSpeed="10" />
    <vehicle id="W_E_249" type="Car" route="W_E" depart="15.0" departLane="random" departSpeed="10" />
    <vehicle id="N_S_250" type="Car" route="N_S" depart="15.0" departLane="random" departSpeed="10" />
    <vehicle id="E_S_251" type="Car" route="E_S" depart="15.0" departLane="random" departSpeed="10" />
    <vehicle id="S_N_252" type="Car" route="S_N" depart="15.0" departLane="random" departSpeed="10" />
    <vehicle id="E_W_253" type="Car" route="E_W" depart="15.0" departLane="random" departSpeed="10" />
    <vehicle id="S_N_254" type="Car" route="S_N" depart="15.0" departLane="random" departSpeed="10" />
    <vehicle id="W_E_255" type="Car" route="W_E" depart="15.0" departLane="random" departSpeed="10" />
    <vehicle id="E_W_256" type="Car" route="E_W" depart="15.0" departLane="random" departSpeed="10" />
    <vehicle id="E_S_257" type="Car" route="E_S" depart="15.0" departLane="random" departSpeed="10" />
    <vehicle id="W_E_258" type="Car" route="W_E" depart="15.0" departLane="random" departSpeed="10" />
    <vehicle id="E_S_259" type="Car" route="E_S" depart="15.0" departLane="random" departSpeed="10" />
    <vehicle id="N_S_260" type="Car" route="N_S" depart="15.0" departLane="random" departSpeed="10" />
    <vehicle id="S_W_261" type="Car" route="S_W" depart="15.0" departLane="random" departSpeed="10" />
    <vehicle id="S_W_262" type="Car" route="S_W" depart="15.0" departLane="random" departSpeed="10" />
    <vehicle id="E_W_263" type="Car" route="E_W" depart="15.0" departLane="random" departSpeed="10" />
    <vehicle id="S_E_264" type="Car" route="S_E" depart="15.0" departLane="random" departSpeed="10" />
    <vehicle id="S_W_265" type="Car" route="S_W" depart="15.0" departLane="random" departSpeed="10" />
    <vehicle id="S_N_266" type="Car" route="S_N" depart="15.0" departLane="random" departSpeed="10" />
    <vehicle id="E_W_267" type="Car" route="E_W" depart="15.0" departLane="random" departSpeed="10" />
    <vehicle id="W_E_268" type="Car" route="W_E" depart="15.0" departLane="random" departSpeed="10" />
    <vehicle id="N_W_269" type="Car" route="N_W" depart="15.0" departLane="random" departSpeed="10" />
    <vehicle id="S_N_270" type="Car" route="S_N" depart="15.0" departLane="random" departSpeed="10" />
    <vehicle id="W_E_271" type="Car" route="W_E" depart="15.0" departLane="random" departSpeed="10" />
    <vehicle id="N_S_272" type="Car" route="N_S" depart="15.0" departLane="random" departSpeed="10" />
    <vehicle id="S_E_273" type="Car" route="S_E" depart="15.0" departLane="random" departSpeed="10" />
    <vehicle id="W_E_274" type="Car" route="W_E" depart="15.0" departLane="random" departSpeed="10" />
    <vehicle id="S_N_275" type="Car" route="S_N" depart="15.0" departLane="random" departSpeed="10" />
    <vehicle id="W_N_276" type="Car" route="W_N" depart="15.0" departLane="random" departSpeed="10" />
    <vehicle id="N_S_277" type="Car" route="N_S" depart="15.0" departLane="random" departSpeed="10" />
    <vehicle id="E_W_278" type="Car" route="E_W" depart="15.0" departLane="random" departSpeed="10" />
    <vehicle id="S_N_279" type="Car" route="S_N" depart="15.0" departLane="random" departSpeed="10" />
    <vehicle id="W_E_280" type="Car" route="W_E" depart="15.0" departLane="random" departSpeed="10" />
    <vehicle id="N_W_281" type="Car" route="N_W" depart="15.0" departLane="random" departSpeed="10" />
    <vehicle id="E_W_282" type="Car" route="E_W" depart="15.0" departLane="random" departSpeed="10" />
    <vehicle id="W_E_283" type="Car" route="W_E" depart="15.0" departLane="random" departSpeed="10" />
    <vehicle id="N_S_284" type="Car" route="N_S" depart="15.0" departLane="random" departSpeed="10" />