<?xml version="1.0" encoding="UTF-8"?>

<!-- generated on 2023-03-04 12:12:35 by Eclipse SUMO netedit Version 1.15.0
<configuration xmlns:xsi="http://www.w3.org/2001/XMLSchema-instance" xsi:noNamespaceSchemaLocation="http://sumo.dlr.de/xsd/netconvertConfiguration.xsd">

    <input>
        <sumo-net-file value="C:\Users\Shree\Desktop\TCS\TCS\Junction\Junction.net.xml"/>
    </input>

    <output>
        <output-file value="C:\Users\Shree\Desktop\TCS\TCS\Junction\Junction.net.xml"/>
    </output>

    <processing>
        <geometry.min-radius.fix.railways value="false"/>
        <geometry.max-grade.fix value="false"/>
        <offset.disable-normalization value="true"/>
        <lefthand value="0"/>
    </processing>

    <junctions>
        <no-turnarounds value="true"/>
        <junctions.corner-detail value="5"/>
        <junctions.limit-turn-speed value="5.50"/>
        <rectangular-lane-cut value="0"/>
    </junctions>

    <pedestrian>
        <walkingareas value="0"/>
    </pedestrian>

</configuration>
-->

<net version="1.9" junctionCornerDetail="5" limitTurnSpeed="5.50" xmlns:xsi="http://www.w3.org/2001/XMLSchema-instance" xsi:noNamespaceSchemaLocation="http://sumo.dlr.de/xsd/net_file.xsd">

    <location netOffset="0.00,0.00" convBoundary="-300.00,-300.00,300.00,300.00" origBoundary="-10000000000.00,-10000000000.00,10000000000.00,10000000000.00" projParameter="!"/>

    <edge id=":TL_0" function="internal">
        <lane id=":TL_0_0" index="0" speed="6.51" length="9.03" shape="-8.00,13.60 -8.35,11.15 -9.40,9.40 -11.15,8.35 -13.60,8.00"/>
    </edge>
    <edge id=":TL_1" function="internal">
        <lane id=":TL_1_0" index="0" speed="13.89" length="27.20" shape="-8.00,13.60 -8.00,-13.60"/>
        <lane id=":TL_1_1" index="1" speed="13.89" length="27.20" shape="-4.80,13.60 -4.80,-13.60"/>
        <lane id=":TL_1_2" index="2" speed="13.89" length="27.20" shape="-1.60,13.60 -1.60,-13.60"/>
    </edge>
    <edge id=":TL_4" function="internal">
        <lane id=":TL_4_0" index="0" speed="10.36" length="5.01" shape="-1.60,13.60 -0.89,8.64"/>
    </edge>
    <edge id=":TL_20" function="internal">
        <lane id=":TL_20_0" index="0" speed="10.36" length="19.50" shape="-0.89,8.64 -0.65,6.95 2.20,2.20 6.95,-0.65 13.60,-1.60"/>
    </edge>
    <edge id=":TL_5" function="internal">
        <lane id=":TL_5_0" index="0" speed="6.51" length="9.03" shape="13.60,8.00 11.15,8.35 9.40,9.40 8.35,11.15 8.00,13.60"/>
    </edge>
    <edge id=":TL_6" function="internal">
        <lane id=":TL_6_0" index="0" speed="13.89" length="27.20" shape="13.60,8.00 -13.60,8.00"/>
        <lane id=":TL_6_1" index="1" speed="13.89" length="27.20" shape="13.60,4.80 -13.60,4.80"/>
        <lane id=":TL_6_2" index="2" speed="13.89" length="27.20" shape="13.60,1.60 -13.60,1.60"/>
    </edge>
    <edge id=":TL_9" function="internal">
        <lane id=":TL_9_0" index="0" speed="10.36" length="5.01" shape="13.60,1.60 8.64,0.89"/>
    </edge>
    <edge id=":TL_21" function="internal">
        <lane id=":TL_21_0" index="0" speed="10.36" length="19.50" shape="8.64,0.89 6.95,0.65 2.20,-2.20 -0.65,-6.95 -1.60,-13.60"/>
    </edge>
    <edge id=":TL_10" function="internal">
        <lane id=":TL_10_0" index="0" speed="6.51" length="9.03" shape="8.00,-13.60 8.35,-11.15 9.40,-9.40 11.15,-8.35 13.60,-8.00"/>
    </edge>
    <edge id=":TL_11" function="internal">
        <lane id=":TL_11_0" index="0" speed="13.89" length="27.20" shape="8.00,-13.60 8.00,13.60"/>
        <lane id=":TL_11_1" index="1" speed="13.89" length="27.20" shape="4.80,-13.60 4.80,13.60"/>
        <lane id=":TL_11_2" index="2" speed="13.89" length="27.20" shape="1.60,-13.60 1.60,13.60"/>
    </edge>
    <edge id=":TL_14" function="internal">
        <lane id=":TL_14_0" index="0" speed="10.36" length="5.01" shape="1.60,-13.60 0.89,-8.64"/>
    </edge>
    <edge id=":TL_22" function="internal">
        <lane id=":TL_22_0" index="0" speed="10.36" length="19.50" shape="0.89,-8.64 0.65,-6.95 -2.20,-2.20 -6.95,0.65 -13.60,1.60"/>
    </edge>
    <edge id=":TL_15" function="internal">
        <lane id=":TL_15_0" index="0" speed="6.51" length="9.03" shape="-13.60,-8.00 -11.15,-8.35 -9.40,-9.40 -8.35,-11.15 -8.00,-13.60"/>
    </edge>
    <edge id=":TL_16" function="internal">
        <lane id=":TL_16_0" index="0" speed="13.89" length="27.20" shape="-13.60,-8.00 13.60,-8.00"/>
        <lane id=":TL_16_1" index="1" speed="13.89" length="27.20" shape="-13.60,-4.80 13.60,-4.80"/>
        <lane id=":TL_16_2" index="2" speed="13.89" length="27.20" shape="-13.60,-1.60 13.60,-1.60"/>
    </edge>
    <edge id=":TL_19" function="internal">
        <lane id=":TL_19_0" index="0" speed="10.36" length="5.01" shape="-13.60,-1.60 -8.64,-0.89"/>
    </edge>
    <edge id=":TL_23" function="internal">
        <lane id=":TL_23_0" index="0" speed="10.36" length="19.50" shape="-8.64,-0.89 -6.95,-0.65 -2.20,2.20 0.65,6.95 1.60,13.60"/>
    </edge>

    <edge id="E_TL" from="EEnd" to="TL" priority="-1">
        <lane id="E_TL_0" index="0" speed="13.89" length="286.40" shape="300.00,8.00 13.60,8.00"/>
        <lane id="E_TL_1" index="1" speed="13.89" length="286.40" shape="300.00,4.80 13.60,4.80"/>
        <lane id="E_TL_2" index="2" speed="13.89" length="286.40" shape="300.00,1.60 13.60,1.60"/>
    </edge>
    <edge id="N_TL" from="NEnd" to="TL" priority="-1">
        <lane id="N_TL_0" index="0" speed="13.89" length="286.40" shape="-8.00,300.00 -8.00,13.60"/>
        <lane id="N_TL_1" index="1" speed="13.89" length="286.40" shape="-4.80,300.00 -4.80,13.60"/>
        <lane id="N_TL_2" index="2" speed="13.89" length="286.40" shape="-1.60,300.00 -1.60,13.60"/>
    </edge>
    <edge id="S_TL" from="SEnd" to="TL" priority="-1">
        <lane id="S_TL_0" index="0" speed="13.89" length="286.40" shape="8.00,-300.00 8.00,-13.60"/>
        <lane id="S_TL_1" index="1" speed="13.89" length="286.40" shape="4.80,-300.00 4.80,-13.60"/>
        <lane id="S_TL_2" index="2" speed="13.89" length="286.40" shape="1.60,-300.00 1.60,-13.60"/>
    </edge>
    <edge id="TL_E" from="TL" to="EEnd" priority="-1">
        <lane id="TL_E_0" index="0" speed="13.89" length="286.40" shape="13.60,-8.00 300.00,-8.00"/>
        <lane id="TL_E_1" index="1" speed="13.89" length="286.40" shape="13.60,-4.80 300.00,-4.80"/>
        <lane id="TL_E_2" index="2" speed="13.89" length="286.40" shape="13.60,-1.60 300.00,-1.60"/>
    </edge>
    <edge id="TL_N" from="TL" to="NEnd" priority="-1">
        <lane id="TL_N_0" index="0" speed="13.89" length="286.40" shape="8.00,13.60 8.00,300.00"/>
        <lane id="TL_N_1" index="1" speed="13.89" length="286.40" shape="4.80,13.60 4.80,300.00"/>
        <lane id="TL_N_2" index="2" speed="13.89" length="286.40" shape="1.60,13.60 1.60,300.00"/>
    </edge>
    <edge id="TL_S" from="TL" to="SEnd" priority="-1">
        <lane id="TL_S_0" index="0" speed="13.89" length="286.40" shape="-8.00,-13.60 -8.00,-300.00"/>
        <lane id="TL_S_1" index="1" speed="13.89" length="286.40" shape="-4.80,-13.60 -4.80,-300.00"/>
        <lane id="TL_S_2" index="2" speed="13.89" length="286.40" shape="-1.60,-13.60 -1.60,-300.00"/>
    </edge>
    <edge id="TL_W" from="TL" to="WEnd" priority="-1">
        <lane id="TL_W_0" index="0" speed="13.89" length="286.40" shape="-13.60,8.00 -300.00,8.00"/>
        <lane id="TL_W_1" index="1" speed="13.89" length="286.40" shape="-13.60,4.80 -300.00,4.80"/>
        <lane id="TL_W_2" index="2" speed="13.89" length="286.40" shape="-13.60,1.60 -300.00,1.60"/>
    </edge>
    <edge id="W_TL" from="WEnd" to="TL" priority="-1">
        <lane id="W_TL_0" index="0" speed="13.89" length="286.40" shape="-300.00,-8.00 -13.60,-8.00"/>
        <lane id="W_TL_1" index="1" speed="13.89" length="286.40" shape="-300.00,-4.80 -13.60,-4.80"/>
        <lane id="W_TL_2" index="2" speed="13.89" length="286.40" shape="-300.00,-1.60 -13.60,-1.60"/>
    </edge>

    <tlLogic id="J0" type="static" programID="0" offset="0">
        <phase duration="120" state="GGGGgrrrrrGGGGgrrrrr"/>
        <phase duration="120" state="yyyyyrrrrryyyyyrrrrr"/>
        <phase duration="120" state="rrrrrGGGGgrrrrrGGGGg"/>
        <phase duration="120" state="rrrrryyyyyrrrrryyyyy"/>
    </tlLogic>

    <junction id="EEnd" type="dead_end" x="300.00" y="0.00" incLanes="TL_E_0 TL_E_1 TL_E_2" intLanes="" shape="300.00,0.00 300.00,-9.60 300.00,0.00"/>
    <junction id="NEnd" type="dead_end" x="0.00" y="300.00" incLanes="TL_N_0 TL_N_1 TL_N_2" intLanes="" shape="0.00,300.00 9.60,300.00 0.00,300.00"/>
    <junction id="SEnd" type="dead_end" x="0.00" y="-300.00" incLanes="TL_S_0 TL_S_1 TL_S_2" intLanes="" shape="0.00,-300.00 -9.60,-300.00 0.00,-300.00"/>
    <junction id="TL" type="traffic_light" x="0.00" y="0.00" incLanes="N_TL_0 N_TL_1 N_TL_2 E_TL_0 E_TL_1 E_TL_2 S_TL_0 S_TL_1 S_TL_2 W_TL_0 W_TL_1 W_TL_2" intLanes=":TL_0_0 :TL_1_0 :TL_1_1 :TL_1_2 :TL_20_0 :TL_5_0 :TL_6_0 :TL_6_1 :TL_6_2 :TL_21_0 :TL_10_0 :TL_11_0 :TL_11_1 :TL_11_2 :TL_22_0 :TL_15_0 :TL_16_0 :TL_16_1 :TL_16_2 :TL_23_0" shape="-9.60,13.60 9.60,13.60 10.04,11.38 10.60,10.60 11.38,10.04 12.38,9.71 13.60,9.60 13.60,-9.60 11.38,-10.04 10.60,-10.60 10.04,-11.38 9.71,-12.38 9.60,-13.60 -9.60,-13.60 -10.04,-11.38 -10.60,-10.60 -11.38,-10.04 -12.38,-9.71 -13.60,-9.60 -13.60,9.60 -11.38,10.04 -10.60,10.60 -10.04,11.38 -9.71,12.38">
        <request index="0"  response="00000000000000000000" foes="00000000000111000000" cont="0"/>
        <request index="1"  response="10000000001000000000" foes="11111100001111000000" cont="0"/>
        <request index="2"  response="10000000001000000000" foes="11111100001111000000" cont="0"/>
        <request index="3"  response="10000000001000000000" foes="11111100001111000000" cont="0"/>
        <request index="4"  response="10000011101000000000" foes="11110011101111000000" cont="1"/>
        <request index="5"  response="00000011100000000000" foes="00000011100000000000" cont="0"/>
        <request index="6"  response="00000111100000011111" foes="10000111100000011111" cont="0"/>
        <request index="7"  response="00000111100000011111" foes="10000111100000011111" cont="0"/>
        <request index="8"  response="00000111100000011111" foes="10000111100000011111" cont="0"/>
        <request index="9"  response="01110111100000011110" foes="01110111100000011110" cont="1"/>
        <request index="10" response="00000000000000000000" foes="01110000000000000000" cont="0"/>
        <request index="11" response="10000000001000000000" foes="11110000001111110000" cont="0"/>
        <request index="12" response="10000000001000000000" foes="11110000001111110000" cont="0"/>
        <request index="13" response="10000000001000000000" foes="11110000001111110000" cont="0"/>
        <request index="14" response="10000000001000001110" foes="11110000001111001110" cont="1"/>
        <request index="15" response="00000000000000001110" foes="00000000000000001110" cont="0"/>
        <request index="16" response="00000111110000011110" foes="00000111111000011110" cont="0"/>
        <request index="17" response="00000111110000011110" foes="00000111111000011110" cont="0"/>
        <request index="18" response="00000111110000011110" foes="00000111111000011110" cont="0"/>
        <request index="19" response="00000111100111011110" foes="00000111100111011110" cont="1"/>
    </junction>
    <junction id="WEnd" type="dead_end" x="-300.00" y="0.00" incLanes="TL_W_0 TL_W_1 TL_W_2" intLanes="" shape="-300.00,0.00 -300.00,9.60 -300.00,0.00"/>

    <junction id=":TL_20_0" type="internal" x="-0.89" y="8.64" incLanes=":TL_4_0 S_TL_0 S_TL_1 S_TL_2" intLanes=":TL_6_0 :TL_6_1 :TL_6_2 :TL_9_0 :TL_10_0 :TL_11_0 :TL_11_1 :TL_11_2 :TL_16_0 :TL_16_1 :TL_16_2 :TL_19_0"/>
    <junction id=":TL_21_0" type="internal" x="8.64" y="0.89" incLanes=":TL_9_0 W_TL_0 W_TL_1 W_TL_2" intLanes=":TL_1_0 :TL_1_1 :TL_1_2 :TL_4_0 :TL_11_0 :TL_11_1 :TL_11_2 :TL_14_0 :TL_15_0 :TL_16_0 :TL_16_1 :TL_16_2"/>
    <junction id=":TL_22_0" type="internal" x="0.89" y="-8.64" incLanes=":TL_14_0 N_TL_0 N_TL_1 N_TL_2" intLanes=":TL_0_0 :TL_1_0 :TL_1_1 :TL_1_2 :TL_6_0 :TL_6_1 :TL_6_2 :TL_9_0 :TL_16_0 :TL_16_1 :TL_16_2 :TL_19_0"/>
    <junction id=":TL_23_0" type="internal" x="-8.64" y="-0.89" incLanes=":TL_19_0 E_TL_0 E_TL_1 E_TL_2" intLanes=":TL_1_0 :TL_1_1 :TL_1_2 :TL_4_0 :TL_5_0 :TL_6_0 :TL_6_1 :TL_6_2 :TL_11_0 :TL_11_1 :TL_11_2 :TL_14_0"/>

    <connection from="E_TL" to="TL_N" fromLane="0" toLane="0" via=":TL_5_0" tl="J0" linkIndex="5" dir="r" state="o"/>
    <connection from="E_TL" to="TL_W" fromLane="0" toLane="0" via=":TL_6_0" tl="J0" linkIndex="6" dir="s" state="o"/>
    <connection from="E_TL" to="TL_W" fromLane="1" toLane="1" via=":TL_6_1" tl="J0" linkIndex="7" dir="s" state="o"/>
    <connection from="E_TL" to="TL_W" fromLane="2" toLane="2" via=":TL_6_2" tl="J0" linkIndex="8" dir="s" state="o"/>
    <connection from="E_TL" to="TL_S" fromLane="2" toLane="2" via=":TL_9_0" tl="J0" linkIndex="9" dir="l" state="o"/>
    <connection from="N_TL" to="TL_W" fromLane="0" toLane="0" via=":TL_0_0" tl="J0" linkIndex="0" dir="r" state="O"/>
    <connection from="N_TL" to="TL_S" fromLane="0" toLane="0" via=":TL_1_0" tl="J0" linkIndex="1" dir="s" state="O"/>
    <connection from="N_TL" to="TL_S" fromLane="1" toLane="1" via=":TL_1_1" tl="J0" linkIndex="2" dir="s" state="O"/>
    <connection from="N_TL" to="TL_S" fromLane="2" toLane="2" via=":TL_1_2" tl="J0" linkIndex="3" dir="s" state="O"/>
    <connection from="N_TL" to="TL_E" fromLane="2" toLane="2" via=":TL_4_0" tl="J0" linkIndex="4" dir="l" state="o"/>
    <connection from="S_TL" to="TL_E" fromLane="0" toLane="0" via=":TL_10_0" tl="J0" linkIndex="10" dir="r" state="O"/>
    <connection from="S_TL" to="TL_N" fromLane="0" toLane="0" via=":TL_11_0" tl="J0" linkIndex="11" dir="s" state="O"/>
    <connection from="S_TL" to="TL_N" fromLane="1" toLane="1" via=":TL_11_1" tl="J0" linkIndex="12" dir="s" state="O"/>
    <connection from="S_TL" to="TL_N" fromLane="2" toLane="2" via=":TL_11_2" tl="J0" linkIndex="13" dir="s" state="O"/>
    <connection from="S_TL" to="TL_W" fromLane="2" toLane="2" via=":TL_14_0" tl="J0" linkIndex="14" dir="l" state="o"/>
    <connection from="W_TL" to="TL_S" fromLane="0" toLane="0" via=":TL_15_0" tl="J0" linkIndex="15" dir="r" state="o"/>
    <connection from="W_TL" to="TL_E" fromLane="0" toLane="0" via=":TL_16_0" tl="J0" linkIndex="16" dir="s" state="o"/>
    <connection from="W_TL" to="TL_E" fromLane="1" toLane="1" via=":TL_16_1" tl="J0" linkIndex="17" dir="s" state="o"/>
    <connection from="W_TL" to="TL_E" fromLane="2" toLane="2" via=":TL_16_2" tl="J0" linkIndex="18" dir="s" state="o"/>
    <connection from="W_TL" to="TL_N" fromLane="2" toLane="2" via=":TL_19_0" tl="J0" linkIndex="19" dir="l" state="o"/>

    <connection from=":TL_0" to="TL_W" fromLane="0" toLane="0" dir="r" state="M"/>
    <connection from=":TL_1" to="TL_S" fromLane="0" toLane="0" dir="s" state="M"/>
    <connection from=":TL_1" to="TL_S" fromLane="1" toLane="1" dir="s" state="M"/>
    <connection from=":TL_1" to="TL_S" fromLane="2" toLane="2" dir="s" state="M"/>
    <connection from=":TL_4" to="TL_E" fromLane="0" toLane="2" via=":TL_20_0" dir="l" state="m"/>
    <connection from=":TL_20" to="TL_E" fromLane="0" toLane="2" dir="l" state="M"/>
    <connection from=":TL_5" to="TL_N" fromLane="0" toLane="0" dir="r" state="M"/>
    <connection from=":TL_6" to="TL_W" fromLane="0" toLane="0" dir="s" state="M"/>
    <connection from=":TL_6" to="TL_W" fromLane="1" toLane="1" dir="s" state="M"/>
    <connection from=":TL_6" to="TL_W" fromLane="2" toLane="2" dir="s" state="M"/>
    <connection from=":TL_9" to="TL_S" fromLane="0" toLane="2" via=":TL_21_0" dir="l" state="m"/>
    <connection from=":TL_21" to="TL_S" fromLane="0" toLane="2" dir="l" state="M"/>
    <connection from=":TL_10" to="TL_E" fromLane="0" toLane="0" dir="r" state="M"/>
    <connection from=":TL_11" to="TL_N" fromLane="0" toLane="0" dir="s" state="M"/>
    <connection from=":TL_11" to="TL_N" fromLane="1" toLane="1" dir="s" state="M"/>
    <connection from=":TL_11" to="TL_N" fromLane="2" toLane="2" dir="s" state="M"/>
    <connection from=":TL_14" to="TL_W" fromLane="0" toLane="2" via=":TL_22_0" dir="l" state="m"/>
    <connection from=":TL_22" to="TL_W" fromLane="0" toLane="2" dir="l" state="M"/>
    <connection from=":TL_15" to="TL_S" fromLane="0" toLane="0" dir="r" state="M"/>
    <connection from=":TL_16" to="TL_E" fromLane="0" toLane="0" dir="s" state="M"/>
    <connection from=":TL_16" to="TL_E" fromLane="1" toLane="1" dir="s" state="M"/>
    <connection from=":TL_16" to="TL_E" fromLane="2" toLane="2" dir="s" state="M"/>
    <connection from=":TL_19" to="TL_N" fromLane="0" toLane="2" via=":TL_23_0" dir="l" state="m"/>
    <connection from=":TL_23" to="TL_N" fromLane="0" toLane="2" dir="l" state="M"/>

</net>
